T44/data_conversion/PT/PT_Tx_2050_Active/Transmission_Network_PT_2050_Active_Economy.m
function mpc = Transmission_Network_PT_2050_Active_Economy

%% MATPOWER Case Format : Version 2
mpc.version = '2';

%%-----  Power Flow Data  -----%%
%% system MVA base
mpc.baseMVA = 100;

%% bus data
%	bus_i	type	Pd	Qd	Gs	Bs	area	Vm	Va	baseKV	zone	Vmax	Vmin
mpc.bus = [
	1	2	0.000	0.000	0	0	1	1.0498	33.89	400	1	1.05	0.95	;
	2	2	0.000	0.000	0	0	1	1.049	26.74	400	1	1.05	0.95	;
	3	2	0.000	0.000	0	0	1	1.0475	9.81	400	1	1.05	0.95	;
	4	2	0.000	0.000	0	0	1	1.0455	1.59	400	1	1.05	0.95	;
	5	2	0.000	0.000	0	0	1	1.0497	33.37	220	1	1.05	0.95	;
	6	2	0.000	0.000	0	0	1	1.0496	33.18	220	1	1.05	0.95	;
	7	2	0.000	0.000	0	0	1	1.0421	-6.95	400	1	1.05	0.95	;
	305	2	0.000	0.000	0	0	1	1.0495	28.13	400	1	1.05	0.95	;
	8	1	0.000	0.000	0	0	1	1.0116	1.1	150	2	1.05	0.95	;
	9	1	0.000	0.000	0	0	1	1.0371	-8.15	150	2	1.05	0.95	;
	10	2	0.000	0.000	0	0	1	1.0451	-6.98	150	2	1.05	0.95	;
	11	1	6.259	-0.469	0	0	1	1.0215	-9.88	150	2	1.05	0.95	;
	12	1	0.000	0.000	0	0	1	1.0275	-12.31	150	2	1.05	0.95	;
	13	1	9.388	3.286	0	0	1	1.034	-8.72	150	2	1.05	0.95	;
	14	2	0.000	0.000	0	0	1	1.038	-7.91	150	2	1.05	0.95	;
	15	1	0.000	0.000	0	0	1	1.0453	-6.58	150	2	1.05	0.95	;
	16	1	0.000	0.000	0	0	1	1.0241	19.89	150	2	1.05	0.95	;
	17	1	0.000	0.000	0	0	1	1.0226	23.55	150	2	1.05	0.95	;
	18	1	10.953	-1.408	0	0	1	1.0302	24.76	150	2	1.05	0.95	;
	19	1	0.000	0.000	0	0	1	1.0198	-10.25	150	2	1.05	0.95	;
	20	1	0.000	0.000	0	0	1	1.0299	-9.21	150	2	1.05	0.95	;
	21	1	0.000	0.000	0	0	1	1.0288	23.32	150	2	1.05	0.95	;
	22	2	0.000	0.000	0	0	1	1.0359	-9.36	150	2	1.05	0.95	;
	23	1	0.000	0.000	0	0	1	1.0154	-13.04	150	2	1.05	0.95	;
	24	2	0.000	0.000	0	0	1	1.027	12.02	150	2	1.05	0.95	;
	25	1	0.000	0.000	0	0	1	1.0171	23.69	150	2	1.05	0.95	;
	26	1	6.259	0.156	0	0	1	1.0454	-6.89	150	2	1.05	0.95	;
	27	1	4.694	-0.313	0	0	1	1.0421	-7.44	150	2	1.05	0.95	;
	28	1	3.129	-0.313	0	0	1	1.0382	-9.38	150	2	1.05	0.95	;
	29	2	0.000	0.000	0	0	1	1.0335	-10.87	150	2	1.05	0.95	;
	30	2	0.000	0.000	0	0	1	1.0378	25.74	150	2	1.05	0.95	;
	31	1	0.000	0.000	0	0	1	1.0268	12.65	150	2	1.05	0.95	;
	32	1	0.000	0.000	0	0	1	1.0298	24.84	150	2	1.05	0.95	;
	33	1	0.000	0.000	0	0	1	1.0431	27.04	150	2	1.05	0.95	;
	34	2	0.000	0.000	0	-75	1	1.0415	-9.95	150	2	1.05	0.95	;
	36	1	0.000	0.000	0	0	1	1.033	1.32	220	2	1.05	0.95	;
	37	1	0.000	0.000	0	0	1	1.0318	-5.02	220	2	1.05	0.95	;
	38	1	0.000	0.000	0	0	1	1.0231	15.32	220	2	1.05	0.95	;
	39	1	0.000	0.000	0	0	1	1.0384	7.34	220	2	1.05	0.95	;
	40	1	0.000	0.000	0	0	1	1.0488	29.05	220	2	1.05	0.95	;
	41	1	0.000	0.000	0	0	1	1.0227	15.58	220	2	1.05	0.95	;
	42	1	0.000	0.000	0	0	1	1.0422	12.76	220	2	1.05	0.95	;
	43	1	0.000	0.000	0	0	1	1.0297	-5.52	220	2	1.05	0.95	;
	44	1	0.000	0.000	0	0	1	1.0278	13.64	220	2	1.05	0.95	;
	45	1	0.000	0.000	0	0	1	1.0348	-0.57	220	2	1.05	0.95	;
	46	1	0.000	0.000	0	0	1	1.0353	-3.11	220	2	1.05	0.95	;
	47	1	0.000	0.000	0	0	1	1.0394	17.2	220	2	1.05	0.95	;
	48	1	62.588	12.518	0	0	1	1.032	11.6	220	2	1.05	0.95	;
	49	1	0.000	0.000	0	0	1	1.0196	14.96	220	2	1.05	0.95	;
	50	1	0.000	0.000	0	100	1	1.0326	-4.7	220	2	1.05	0.95	;
	51	1	0.000	0.000	0	0	1	1.0422	23.04	220	2	1.05	0.95	;
	52	1	0.000	0.000	0	0	1	1.0392	3.88	220	2	1.05	0.95	;
	53	1	0.000	0.000	0	0	1	1.021	15.27	220	2	1.05	0.95	;
	54	1	0.000	0.000	0	0	1	1.0473	34.21	220	2	1.05	0.95	;
	55	1	0.000	0.000	0	0	1	1.0291	-5.69	220	2	1.05	0.95	;
	56	1	0.000	0.000	0	100	1	1.0289	-6.09	220	2	1.05	0.95	;
	57	1	0.000	0.000	0	0	1	1.0249	15.87	220	2	1.05	0.95	;
	58	1	0.000	0.000	0	0	1	1.0284	-5.79	220	2	1.05	0.95	;
	59	1	0.000	0.000	0	0	1	1.0312	-5.21	220	2	1.05	0.95	;
	60	1	0.000	0.000	0	0	1	1.039	17	220	2	1.05	0.95	;
	61	2	0.000	0.000	0	0	1	1.0405	17.37	220	2	1.05	0.95	;
	62	1	0.000	0.000	0	0	1	1.0389	15.06	220	2	1.05	0.95	;
	63	1	0.000	0.000	0	0	1	1.0457	31.97	220	2	1.05	0.95	;
	64	2	0.000	0.000	0	0	1	1.0301	-2.06	220	2	1.05	0.95	;
	65	2	0.000	0.000	0	0	1	1.0463	17.33	220	2	1.05	0.95	;
	66	1	0.000	0.000	0	0	1	1.0402	17.61	220	2	1.05	0.95	;
	67	1	3.129	-0.313	0	0	1	1.0287	16.17	220	2	1.05	0.95	;
	68	1	0.000	0.000	0	0	1	1.0207	15.32	220	2	1.05	0.95	;
	69	1	0.000	0.000	0	0	1	1.0339	10.95	220	2	1.05	0.95	;
	71	1	0.000	0.000	0	0	1	1.0386	6.11	220	2	1.05	0.95	;
	72	1	0.000	0.000	0	-70	1	1.0294	13.84	220	2	1.05	0.95	;
	73	2	0.000	0.000	0	0	1	1.0319	26.76	220	2	1.05	0.95	;
	74	1	0.000	0.000	0	0	1	1.0343	-3.36	220	2	1.05	0.95	;
	75	1	0.000	0.000	0	0	1	1.0396	19.86	220	2	1.05	0.95	;
	76	1	0.000	0.000	0	0	1	1.0283	-5.72	220	2	1.05	0.95	;
	77	1	0.000	0.000	0	0	1	1.036	29.99	220	2	1.05	0.95	;
	78	1	0.000	0.000	0	-70	1	1.0396	9.49	220	2	1.05	0.95	;
	79	1	0.000	0.000	0	0	1	1.0345	22.22	220	2	1.05	0.95	;
	80	1	0.000	0.000	0	0	1	1.0423	-3.26	400	2	1.05	0.95	;
	81	1	0.000	0.000	0	0	1	1.0293	20.25	400	2	1.05	0.95	;
	82	1	0.000	0.000	0	0	1	1.0424	-1.29	400	2	1.05	0.95	;
	83	1	0.000	0.000	0	0	1	1.0426	7.41	400	2	1.05	0.95	;
	84	1	0.000	0.000	0	0	1	1.0398	-3.96	400	2	1.05	0.95	;
	85	1	0.000	0.000	0	-150	1	1.0394	4.08	400	2	1.05	0.95	;
	86	1	0.000	0.000	0	0	1	1.0407	-4.33	400	2	1.05	0.95	;
	87	1	0.000	0.000	0	0	1	1.0434	-4.72	400	2	1.05	0.95	;
	88	1	0.000	0.000	0	0	1	1.037	23.93	400	2	1.05	0.95	;
	89	1	0.000	0.000	0	-150	1	1.044	-1.48	400	2	1.05	0.95	;
	90	1	0.000	0.000	0	-150	1	1.0472	21.09	400	2	1.05	0.95	;
	91	1	0.000	0.000	0	0	1	1.0445	26.22	400	2	1.05	0.95	;
	92	1	0.000	0.000	0	-150	1	1.035	21.07	400	2	1.05	0.95	;
	93	1	0.000	0.000	0	0	1	1.0334	21.04	400	2	1.05	0.95	;
	94	1	0.000	0.000	0	0	1	1.0335	21.49	400	2	1.05	0.95	;
	95	1	0.000	0.000	0	0	1	1.0474	12.52	400	2	1.05	0.95	;
	96	1	0.000	0.000	0	0	1	1.0491	30.32	400	2	1.05	0.95	;
	97	2	0.000	0.000	0	0	1	1.041	-3.82	400	2	1.05	0.95	;
	98	1	0.000	0.000	0	0	1	1.0495	9.65	400	2	1.05	0.95	;
	99	1	0.000	0.000	0	0	1	1.0497	8.4	400	2	1.05	0.95	;
	100	1	0.000	0.000	0	0	1	1.0488	-0.01	400	2	1.05	0.95	;
	101	1	0.000	0.000	0	-150	1	1.04	15.2	400	2	1.05	0.95	;
	102	1	0.000	0.000	0	-150	1	1.0312	-6.91	400	2	1.05	0.95	;
	103	1	0.000	0.000	0	0	1	1.0463	18.08	400	2	1.05	0.95	;
	104	1	0.000	0.000	0	-150	1	1.0411	25.93	400	2	1.05	0.95	;
	105	1	0.000	0.000	0	0	1	1.0469	0.91	400	2	1.05	0.95	;
	106	1	0.000	0.000	0	0	1	1.0495	26.62	400	2	1.05	0.95	;
	107	2	0.000	0.000	0	0	1	1.0347	-6.9	400	2	1.05	0.95	;
	108	2	72.132	20.341	0	0	1	1.0418	21.33	130	2	1.05	0.95	;
	109	2	370.832	53.982	0	0	1	1.0373	-3.08	63	2	1.05	0.95	;
	110	2	290.094	16.429	0	0	1	1.0357	-9.51	63	2	1.05	0.95	;
	111	2	278.046	33.328	0	0	1	1.0334	10.43	63	2	1.05	0.95	;
	112	2	351.899	48.975	0	0	1	1.0359	-10.47	63	2	1.05	0.95	;
	113	2	191.675	27.539	0	0	1	1.0361	-10.68	63	2	1.05	0.95	;
	114	2	333.123	45.376	0	0	1	1.0442	2.33	63	2	1.05	0.95	;
	115	2	53.043	9.858	0	0	1	1.0335	28.63	63	2	1.05	0.95	;
	116	2	421.372	83.711	0	0	1	1.0199	13.22	63	2	1.05	0.95	;
	117	2	106.712	12.987	0	0	1	1.0217	-12.63	63	2	1.05	0.95	;
	118	2	154.279	39.117	0	0	1	1.0368	11.74	63	2	1.05	0.95	;
	119	2	443.278	76.826	0	0	1	1.0463	-7.57	63	2	1.05	0.95	;
	120	2	384.602	71.663	0	0	1	1.0418	9.34	63	2	1.05	0.95	;
	121	2	226.880	43.029	0	0	1	1.0376	-15.31	63	2	1.05	0.95	;
	122	2	376.935	76.201	0	0	1	1.0437	1.75	63	2	1.05	0.95	;
	123	2	325.613	13.769	0	0	1	1.0401	-12.33	63	2	1.05	0.95	;
	124	2	232.357	60.867	0	0	1	1.038	-2.5	63	2	1.05	0.95	;
	125	2	212.955	18.776	0	0	1	1.0371	-7.11	63	2	1.05	0.95	;
	126	2	174.150	23.001	0	0	1	1.0398	-7.99	63	2	1.05	0.95	;
	127	2	212.485	39.743	0	0	1	1.0433	14.18	63	2	1.05	0.95	;
	128	2	452.040	101.392	0	0	1	1.0374	20.07	63	2	1.05	0.95	;
	129	2	321.231	45.220	0	0	1	1.0401	8.56	63	2	1.05	0.95	;
	130	2	480.204	95.603	0	0	1	1.0176	10.39	63	2	1.05	0.95	;
	131	2	266.780	43.342	0	0	1	1.0381	-4.66	63	2	1.05	0.95	;
	132	2	95.290	18.620	0	0	1	1.0166	5.74	63	2	1.05	0.95	;
	133	2	330.776	78.861	0	0	1	1.0378	21.37	63	2	1.05	0.95	;
	134	2	311.843	52.261	0	0	1	1.0269	12.4	63	2	1.05	0.95	;
	135	2	313.095	32.389	0	0	1	1.0395	-9.36	63	2	1.05	0.95	;
	136	2	407.133	48.193	0	0	1	1.0378	-12.29	63	2	1.05	0.95	;
	137	2	229.697	58.050	0	0	1	1.039	16.24	63	2	1.05	0.95	;
	138	2	245.500	44.750	0	0	1	1.0298	13.83	63	2	1.05	0.95	;
	139	2	301.203	33.954	0	0	1	1.036	-10.32	63	2	1.05	0.95	;
	140	2	81.051	13.926	0	0	1	1.0228	-13.86	63	2	1.05	0.95	;
	141	2	170.395	14.395	0	0	1	1.0291	-13.22	63	2	1.05	0.95	;
	142	2	249.256	42.716	0	0	1	1.0409	17.76	63	2	1.05	0.95	;
	143	1	149.428	15.803	0	0	1	1.0272	-9.62	63	2	1.05	0.95	;
	144	2	122.046	12.987	0	0	1	1.0401	14.03	63	2	1.05	0.95	;
	145	2	317.633	62.744	0	0	1	1.0339	11.88	63	2	1.05	0.95	;
	146	2	29.729	4.538	0	0	1	1.0248	-10.16	63	2	1.05	0.95	;
	147	2	114.379	15.803	0	0	1	1.027	-6.62	63	2	1.05	0.95	;
	148	1	0.000	0.000	0	0	1	1.0104	20.85	63	2	1.05	0.95	;
	149	2	294.945	50.853	0	0	1	1.0322	-17.86	63	2	1.05	0.95	;
	150	2	74.166	15.803	0	0	1	1.0237	12.45	63	2	1.05	0.95	;
	151	2	362.539	91.535	0	0	1	1.0212	18.01	63	2	1.05	0.95	;
	152	2	125.019	30.199	0	0	1	1.0304	13.76	63	2	1.05	0.95	;
	153	2	18.933	4.851	0	0	1	1.029	31.27	63	2	1.05	0.95	;
	154	2	151.932	15.334	0	0	1	1.0284	-5.69	63	2	1.05	0.95	;
	155	2	93.569	23.627	0	0	1	1.0442	16	63	2	1.05	0.95	;
	156	2	51.322	10.327	0	0	1	1.0384	16.61	63	2	1.05	0.95	;
	157	2	211.234	33.954	0	0	1	1.0295	9.8	63	2	1.05	0.95	;
	158	2	152.871	28.634	0	0	1	1.037	11.63	63	2	1.05	0.95	;
	159	2	165.701	27.539	0	0	1	1.0427	-14.66	63	2	1.05	0.95	;
	160	2	172.429	20.341	0	0	1	1.0469	15.27	63	2	1.05	0.95	;
	161	2	28.008	7.980	0	0	1	1.0361	5.59	63	2	1.05	0.95	;
	162	2	108.277	19.246	0	0	1	1.0289	10.95	63	2	1.05	0.95	;
	163	2	21.280	14.395	0	0	1	1.0318	26.82	63	2	1.05	0.95	;
	164	2	66.343	7.980	0	0	1	1.0297	-0.53	63	2	1.05	0.95	;
	165	2	81.990	20.185	0	0	1	1.0084	25.08	63	2	1.05	0.95	;
	166	2	211.234	29.260	0	0	1	1.0468	-8.37	63	2	1.05	0.95	;
	167	2	61.179	11.266	0	0	1	1.0108	19.44	63	2	1.05	0.95	;
	168	2	235.017	41.777	0	0	1	1.04	-7.06	63	2	1.05	0.95	;
	169	2	30.668	18.307	0	0	1	1.0465	-10.61	63	2	1.05	0.95	;
	170	2	61.492	17.525	0	0	1	1.0388	8.06	63	2	1.05	0.95	;
	171	2	105.930	11.892	0	0	1	1.0255	4.33	63	2	1.05	0.95	;
	172	2	64.622	11.892	0	0	1	1.0098	21.14	63	2	1.05	0.95	;
	173	2	0.000	0.000	0	0	1	1.0439	27.24	150	2	1.05	0.95	;
	174	2	0.000	0.000	0	0	1	1.042	26.77	150	2	1.05	0.95	;
	175	2	0.000	0.000	0	0	1	1.0146	1.43	150	2	1.05	0.95	;
	176	2	0.000	0.000	0	0	1	1.0145	1.43	150	2	1.05	0.95	;
	177	2	0.000	0.000	0	0	1	1.0454	27.5	150	2	1.05	0.95	;
	178	2	0.000	0.000	0	0	1	1.0296	21	150	2	1.05	0.95	;
	179	2	0.000	0.000	0	0	1	1.0434	26.47	150	2	1.05	0.95	;
	180	1	0.000	0.000	0	0	1	1.036	-8.36	150	2	1.05	0.95	;
	181	2	0.000	0.000	0	0	1	1.0329	13.06	150	2	1.05	0.95	;
	182	2	0.000	0.000	0	0	1	1.0438	27.2	150	2	1.05	0.95	;
	184	1	0.000	0.000	0	0	1	1.0361	25.39	150	2	1.05	0.95	;
	185	1	0.000	0.000	0	0	1	1.0403	-7.68	150	2	1.05	0.95	;
	186	1	0.000	0.000	0	0	1	1.0296	-9.27	150	2	1.05	0.95	;
	187	2	0.000	0.000	0	0	1	1.0331	1.34	220	2	1.05	0.95	;
	188	2	0.000	0.000	0	0	1	1.0332	1.34	220	2	1.05	0.95	;
	189	2	0.000	0.000	0	0	1	1.033	1.32	220	2	1.05	0.95	;
	190	1	0.000	0.000	0	0	1	1.0189	15.11	220	2	1.05	0.95	;
	191	2	0.000	0.000	0	0	1	1.0493	35.48	220	2	1.05	0.95	;
	192	2	0.000	0.000	0	0	1	1.0444	32.55	220	2	1.05	0.95	;
	193	1	0.000	0.000	0	0	1	1.0221	15.07	220	2	1.05	0.95	;
	194	2	0.000	0.000	0	0	1	1.0492	25.68	220	2	1.05	0.95	;
	195	2	0.000	0.000	0	0	1	1.0456	8.97	220	2	1.05	0.95	;
	196	2	0.000	0.000	0	0	1	1.0495	29.14	220	2	1.05	0.95	;
	198	2	0.000	0.000	0	0	1	1.0494	30.21	220	2	1.05	0.95	;
	199	1	0.000	0.000	0	0	1	1.0388	3.82	220	2	1.05	0.95	;
	200	2	0.000	0.000	0	0	1	1.0473	34.22	220	2	1.05	0.95	;
	201	2	0.000	0.000	0	0	1	1.0473	34.22	220	2	1.05	0.95	;
	202	2	0.000	0.000	0	0	1	1.0473	34.22	220	2	1.05	0.95	;
	203	2	0.000	0.000	0	0	1	1.0474	34.25	220	2	1.05	0.95	;
...
];

%% generator data
%	bus	Pg	Qg	Qmax	Qmin	Vg	mBase	status	Pmax	Pmin	Pc1	Pc2	Qc1min	Qc1max	Qc2min	Qc2max	ramp_agc	ramp_10	ramp_30	ramp_q	apf
mpc.gen = [
	1	1431.773	-104.927	9999.000	-9999.000	1.0498	100.00	1	9999.000	-9999.000	0	0	0	0	0	0	0	0	0	0	0	;
	2	170.416	-62.865	9999.000	-9999.000	1.0490	100.00	1	9999.000	-9999.000	0	0	0	0	0	0	0	0	0	0	0	;
	3	52.086	-50.073	9999.000	-9999.000	1.0475	100.00	1	9999.000	-9999.000	0	0	0	0	0	0	0	0	0	0	0	;
	4	80.012	-43.272	9999.000	-9999.000	1.0455	100.00	1	9999.000	-9999.000	0	0	0	0	0	0	0	0	0	0	0	;
	5	449.940	-62.472	9999.000	-9999.000	1.0497	100.00	1	9999.000	-9999.000	0	0	0	0	0	0	0	0	0	0	0	;
	6	289.655	-40.508	9999.000	-9999.000	1.0496	100.00	1	9999.000	-9999.000	0	0	0	0	0	0	0	0	0	0	0	;
	7	0.000	47.682	9999.000	-9999.000	1.0421	100.00	1	9999.000	-9999.000	0	0	0	0	0	0	0	0	0	0	0	;
	305	436.567	11.419	9999.000	-9999.000	1.0495	100.00	1	9999.000	-9999.000	0	0	0	0	0	0	0	0	0	0	0	;
	10	0.000	0.000	133.109	-133.109	1.0451	358.41	0	332.772	0.000	0	0	0	0	0	0	0	0	0	0	0	;
	14	0.000	0.000	153.350	-153.350	1.0380	412.91	0	383.374	0.000	0	0	0	0	0	0	0	0	0	0	0	;
	22	0.000	0.000	96.526	-96.526	1.0359	259.90	0	241.316	0.000	0	0	0	0	0	0	0	0	0	0	0	;
	22	0.000	0.000	130.028	-130.028	1.0359	350.11	0	325.069	0.000	0	0	0	0	0	0	0	0	0	0	0	;
	24	0.000	0.000	153.350	-153.350	1.0270	412.91	0	383.374	0.000	0	0	0	0	0	0	0	0	0	0	0	;
	29	0.000	0.000	99.832	-99.832	1.0335	268.80	0	249.579	0.000	0	0	0	0	0	0	0	0	0	0	0	;
	30	31.000	4.802	15.500	-12.400	1.0378	34.66	1	31.000	15.500	0	0	0	0	0	0	0	0	0	0	0	;
	30	0.000	0.000	15.500	-12.400	1.0378	34.66	0	31.000	15.500	0	0	0	0	0	0	0	0	0	0	0	;
	34	0.000	0.000	166.386	-166.386	1.0415	448.01	0	415.965	0.000	0	0	0	0	0	0	0	0	0	0	0	;
	61	60.000	9.103	30.000	-24.000	1.0405	67.08	1	60.000	30.000	0	0	0	0	0	0	0	0	0	0	0	;
	61	60.000	9.103	30.000	-24.000	1.0405	67.08	1	60.000	30.000	0	0	0	0	0	0	0	0	0	0	0	;
	61	60.000	9.103	30.000	-24.000	1.0405	67.08	1	60.000	30.000	0	0	0	0	0	0	0	0	0	0	0	;
	64	0.000	0.000	106.195	-106.195	1.0301	285.94	0	265.487	0.000	0	0	0	0	0	0	0	0	0	0	0	;
	65	4.598	55.220	84.446	-84.446	1.0463	227.38	1	211.116	0.000	0	0	0	0	0	0	0	0	0	0	0	;
	73	5.670	15.078	104.133	-104.133	1.0319	280.39	1	260.332	0.000	0	0	0	0	0	0	0	0	0	0	0	;
	97	0.000	0.000	153.350	-153.350	1.0410	412.91	0	383.374	0.000	0	0	0	0	0	0	0	0	0	0	0	;
	107	0.000	0.000	266.217	-266.217	1.0347	716.81	0	665.543	0.000	0	0	0	0	0	0	0	0	0	0	0	;
	108	4.806	59.776	88.263	-88.263	1.0418	237.66	1	220.658	0.000	0	0	0	0	0	0	0	0	0	0	0	;
	108	13.030	6.288	9.285	-9.285	1.0418	25.00	1	23.212	0.000	0	0	0	0	0	0	0	0	0	0	0	;
	109	15.500	4.020	7.750	-6.200	1.0373	17.33	1	15.500	7.750	0	0	0	0	0	0	0	0	0	0	0	;
	109	30.000	7.780	15.000	-12.000	1.0373	33.54	1	30.000	15.000	0	0	0	0	0	0	0	0	0	0	0	;
	109	54.638	12.412	25.178	-25.178	1.0373	67.79	1	62.945	0.000	0	0	0	0	0	0	0	0	0	0	0	;
	109	5.342	48.366	98.105	-98.105	1.0373	264.16	1	245.263	0.000	0	0	0	0	0	0	0	0	0	0	0	;
	109	8.183	0.000	0.000	0.000	1.0373	15.70	1	15.700	0.000	0	0	0	0	0	0	0	0	0	0	0	;
	109	0.000	0.000	17.032	-17.032	1.0373	45.86	0	42.580	0.000	0	0	0	0	0	0	0	0	0	0	0	;
	110	17.564	1.577	8.094	-8.094	1.0357	21.79	1	20.235	0.000	0	0	0	0	0	0	0	0	0	0	0	;
	110	0.000	0.000	13.722	-13.722	1.0357	36.95	0	34.306	0.000	0	0	0	0	0	0	0	0	0	0	0	;
	111	8.135	1.643	3.749	-3.749	1.0334	10.09	1	9.372	0.000	0	0	0	0	0	0	0	0	0	0	0	;
	112	171.501	52.085	79.029	-79.029	1.0359	212.79	1	197.574	0.000	0	0	0	0	0	0	0	0	0	0	0	;
	112	0.000	0.000	37.339	-37.339	1.0359	100.54	0	93.347	0.000	0	0	0	0	0	0	0	0	0	0	0	;
	113	4.024	0.212	1.854	-1.854	1.0361	4.99	1	4.636	0.000	0	0	0	0	0	0	0	0	0	0	0	;
	113	3.492	0.000	0.000	0.000	1.0361	6.70	1	6.700	0.000	0	0	0	0	0	0	0	0	0	0	0	;
	113	0.000	0.000	95.479	-95.479	1.0361	257.09	0	238.698	0.000	0	0	0	0	0	0	0	0	0	0	0	;
	114	26.027	7.084	11.993	-11.993	1.0442	32.29	1	29.984	0.000	0	0	0	0	0	0	0	0	0	0	0	;
	114	7.085	76.852	130.119	-130.119	1.0442	350.36	1	325.297	0.000	0	0	0	0	0	0	0	0	0	0	0	;
	114	7.036	0.000	0.000	0.000	1.0442	13.50	1	13.500	0.000	0	0	0	0	0	0	0	0	0	0	0	;
	114	14.072	5.923	10.028	-10.028	1.0442	27.00	1	25.069	0.000	0	0	0	0	0	0	0	0	0	0	0	;
	114	0.000	0.000	17.395	-17.395	1.0442	46.84	0	43.487	0.000	0	0	0	0	0	0	0	0	0	0	0	;
	115	17.000	3.930	9.000	-7.200	1.0335	20.12	1	18.000	-18.000	0	0	0	0	0	0	0	0	0	0	0	;
	115	17.000	3.930	9.000	-7.200	1.0335	20.12	1	18.000	-18.000	0	0	0	0	0	0	0	0	0	0	0	;
	115	4.347	0.805	2.003	-2.003	1.0335	5.39	1	5.008	0.000	0	0	0	0	0	0	0	0	0	0	0	;
	115	4.681	34.545	85.961	-85.961	1.0335	231.46	1	214.902	0.000	0	0	0	0	0	0	0	0	0	0	0	;
	115	5.316	0.000	0.000	0.000	1.0335	10.20	1	10.200	0.000	0	0	0	0	0	0	0	0	0	0	0	;
	116	58.829	18.783	27.109	-27.109	1.0199	72.99	1	67.773	0.000	0	0	0	0	0	0	0	0	0	0	0	;
	116	0.938	0.000	0.000	0.000	1.0199	1.80	1	1.800	0.000	0	0	0	0	0	0	0	0	0	0	0	;
	116	0.000	0.000	15.491	-15.491	1.0199	41.71	0	38.727	0.000	0	0	0	0	0	0	0	0	0	0	0	;
	117	3.541	0.354	1.632	-1.632	1.0217	4.39	1	4.079	0.000	0	0	0	0	0	0	0	0	0	0	0	;
	117	0.000	0.000	28.273	-28.273	1.0217	76.13	0	70.683	0.000	0	0	0	0	0	0	0	0	0	0	0	;
	118	34.731	8.881	16.004	-16.004	1.0368	43.09	1	40.011	0.000	0	0	0	0	0	0	0	0	0	0	0	;
	118	4.539	46.257	83.361	-83.361	1.0368	224.46	1	208.402	0.000	0	0	0	0	0	0	0	0	0	0	0	;
	118	12.769	0.000	0.000	0.000	1.0368	24.50	1	24.500	0.000	0	0	0	0	0	0	0	0	0	0	0	;
	118	41.435	16.384	29.526	-29.526	1.0368	79.50	1	73.814	0.000	0	0	0	0	0	0	0	0	0	0	0	;
	119	7.732	2.404	3.563	-3.563	1.0463	9.59	1	8.907	0.000	0	0	0	0	0	0	0	0	0	0	0	;
	119	5.249	65.042	96.397	-96.397	1.0463	259.56	1	240.992	0.000	0	0	0	0	0	0	0	0	0	0	0	;
	119	0.000	0.000	15.491	-15.491	1.0463	41.71	0	38.727	0.000	0	0	0	0	0	0	0	0	0	0	0	;
	120	25.704	8.305	11.845	-11.845	1.0418	31.89	1	29.612	0.000	0	0	0	0	0	0	0	0	0	0	0	;
	120	5.401	69.543	99.182	-99.182	1.0418	267.06	1	247.955	0.000	0	0	0	0	0	0	0	0	0	0	0	;
	120	10.424	0.000	0.000	0.000	1.0418	20.00	1	20.000	0.000	0	0	0	0	0	0	0	0	0	0	0	;
	120	0.000	0.000	17.667	-17.667	1.0418	47.57	0	44.167	0.000	0	0	0	0	0	0	0	0	0	0	0	;
	121	4.645	60.595	85.292	-85.292	1.0376	229.66	1	213.230	0.000	0	0	0	0	0	0	0	0	0	0	0	;
	121	0.521	0.000	0.000	0.000	1.0376	1.00	1	1.000	0.000	0	0	0	0	0	0	0	0	0	0	0	;
	121	0.000	0.000	41.877	-41.877	1.0376	112.76	0	104.692	0.000	0	0	0	0	0	0	0	0	0	0	0	;
	122	20.708	6.735	9.542	-9.542	1.0437	25.69	1	23.856	0.000	0	0	0	0	0	0	0	0	0	0	0	;
	122	7.415	96.108	136.173	-136.173	1.0437	366.66	1	340.432	0.000	0	0	0	0	0	0	0	0	0	0	0	;
	122	0.000	0.000	13.769	-13.769	1.0437	37.07	0	34.421	0.000	0	0	0	0	0	0	0	0	0	0	0	;
	123	39.325	9.910	18.121	-18.121	1.0401	48.79	1	45.304	0.000	0	0	0	0	0	0	0	0	0	0	0	;
	123	0.000	0.000	30.902	-30.902	1.0401	83.21	0	77.256	0.000	0	0	0	0	0	0	0	0	0	0	0	;
	124	3.621	1.199	1.669	-1.669	1.0380	4.49	1	4.172	0.000	0	0	0	0	0	0	0	0	0	0	0	;
	124	8.930	117.833	163.990	-163.990	1.0380	441.56	1	409.974	0.000	0	0	0	0	0	0	0	0	0	0	0	;
	124	0.678	0.000	0.000	0.000	1.0380	1.30	1	1.300	0.000	0	0	0	0	0	0	0	0	0	0	0	;
	125	4.859	46.731	89.229	-89.229	1.0371	240.26	1	223.072	0.000	0	0	0	0	0	0	0	0	0	0	0	;
	126	32.474	4.149	14.965	-14.965	1.0398	40.29	1	37.412	0.000	0	0	0	0	0	0	0	0	0	0	0	;
	126	4.924	25.070	90.417	-90.417	1.0398	243.46	1	226.043	0.000	0	0	0	0	0	0	0	0	0	0	0	;
	126	0.000	0.000	38.946	-38.946	1.0398	104.86	0	97.364	0.000	0	0	0	0	0	0	0	0	0	0	0	;
	127	4.266	0.840	1.966	-1.966	1.0433	5.29	1	4.915	0.000	0	0	0	0	0	0	0	0	0	0	0	;
	127	11.365	89.189	208.705	-208.705	1.0433	561.96	1	521.763	0.000	0	0	0	0	0	0	0	0	0	0	0	;
	127	23.923	0.000	0.000	0.000	1.0433	45.90	1	45.900	0.000	0	0	0	0	0	0	0	0	0	0	0	;
	127	16.027	4.880	11.420	-11.420	1.0433	30.75	1	28.551	0.000	0	0	0	0	0	0	0	0	0	0	0	;
	127	0.000	0.000	13.722	-13.722	1.0433	36.95	0	34.306	0.000	0	0	0	0	0	0	0	0	0	0	0	;
	128	133.782	44.244	61.648	-61.648	1.0374	165.99	1	154.121	0.000	0	0	0	0	0	0	0	0	0	0	0	;
	128	4.558	60.067	83.695	-83.695	1.0374	225.36	1	209.238	0.000	0	0	0	0	0	0	0	0	0	0	0	;
	128	23.714	0.000	0.000	0.000	1.0374	45.50	1	45.500	0.000	0	0	0	0	0	0	0	0	0	0	0	;
	128	0.000	0.000	16.035	-16.035	1.0374	43.18	0	40.087	0.000	0	0	0	0	0	0	0	0	0	0	0	;
	129	71.000	24.229	37.500	-30.000	1.0401	83.85	1	75.000	37.500	0	0	0	0	0	0	0	0	0	0	0	;
	129	61.005	17.839	28.112	-28.112	1.0401	75.69	1	70.280	0.000	0	0	0	0	0	0	0	0	0	0	0	;
	129	5.209	60.699	95.654	-95.654	1.0401	257.56	1	239.135	0.000	0	0	0	0	0	0	0	0	0	0	0	;
	129	9.538	0.000	0.000	0.000	1.0401	18.30	1	18.300	0.000	0	0	0	0	0	0	0	0	0	0	0	;
	130	10.472	2.451	4.826	-4.826	1.0176	12.99	1	12.064	0.000	0	0	0	0	0	0	0	0	0	0	0	;
	131	71.563	18.077	32.977	-32.977	1.0381	88.79	1	82.443	0.000	0	0	0	0	0	0	0	0	0	0	0	;
	131	5.702	57.401	104.716	-104.716	1.0381	281.96	1	261.790	0.000	0	0	0	0	0	0	0	0	0	0	0	;
	131	0.000	0.000	30.268	-30.268	1.0381	81.50	0	75.669	0.000	0	0	0	0	0	0	0	0	0	0	0	;
	132	30.298	4.873	13.962	-13.962	1.0166	37.59	1	34.905	0.000	0	0	0	0	0	0	0	0	0	0	0	;
	132	4.948	31.712	90.863	-90.863	1.0166	244.66	1	227.157	0.000	0	0	0	0	0	0	0	0	0	0	0	;
	132	0.000	0.000	13.722	-13.722	1.0166	36.95	0	34.306	0.000	0	0	0	0	0	0	0	0	0	0	0	;
	133	114.037	34.819	52.549	-52.549	1.0378	141.49	1	131.373	0.000	0	0	0	0	0	0	0	0	0	0	0	;
	133	7.055	85.846	129.562	-129.562	1.0378	348.86	1	323.905	0.000	0	0	0	0	0	0	0	0	0	0	0	;
	133	8.704	0.000	0.000	0.000	1.0378	16.70	1	16.700	0.000	0	0	0	0	0	0	0	0	0	0	0	;
	134	153.125	51.216	70.562	-70.562	1.0269	189.99	1	176.404	0.000	0	0	0	0	0	0	0	0	0	0	0	;
	134	0.000	0.000	14.766	-14.766	1.0269	39.76	0	36.914	0.000	0	0	0	0	0	0	0	0	0	0	0	;
	135	3.217	38.289	59.078	-59.078	1.0395	159.07	1	147.694	0.000	0	0	0	0	0	0	0	0	0	0	0	;
	136	7.893	0.577	3.637	-3.637	1.0378	9.79	1	9.093	0.000	0	0	0	0	0	0	0	0	0	0	0	;
	136	0.000	0.000	17.304	-17.304	1.0378	46.59	0	43.260	0.000	0	0	0	0	0	0	0	0	0	0	0	;
	137	26.269	8.553	12.105	-12.105	1.0390	32.59	1	30.262	0.000	0	0	0	0	0	0	0	0	0	0	0	;
	137	5.387	69.896	98.922	-98.922	1.0390	266.36	1	247.305	0.000	0	0	0	0	0	0	0	0	0	0	0	;
	137	2.554	0.000	0.000	0.000	1.0390	4.90	1	4.900	0.000	0	0	0	0	0	0	0	0	0	0	0	;
	138	7.893	1.271	3.637	-3.637	1.0298	9.79	1	9.093	0.000	0	0	0	0	0	0	0	0	0	0	0	;
	138	3.440	0.000	0.000	0.000	1.0298	6.60	1	6.600	0.000	0	0	0	0	0	0	0	0	0	0	0	;
	138	0.000	0.000	18.936	-18.936	1.0298	50.99	0	47.340	0.000	0	0	0	0	0	0	0	0	0	0	0	;
	139	10.553	1.272	4.863	-4.863	1.0360	13.09	1	12.157	0.000	0	0	0	0	0	0	0	0	0	0	0	;
	139	0.000	0.000	13.722	-13.722	1.0360	36.95	0	34.306	0.000	0	0	0	0	0	0	0	0	0	0	0	;
	140	3.596	0.000	0.000	0.000	1.0228	6.90	1	6.900	0.000	0	0	0	0	0	0	0	0	0	0	0	;
	140	0.000	0.000	104.151	-104.151	1.0228	280.43	0	260.377	0.000	0	0	0	0	0	0	0	0	0	0	0	;
	141	13.373	2.353	6.163	-6.163	1.0291	16.59	1	15.407	0.000	0	0	0	0	0	0	0	0	0	0	0	;
	141	0.000	0.000	13.722	-13.722	1.0291	36.95	0	34.306	0.000	0	0	0	0	0	0	0	0	0	0	0	;
	142	18.612	5.579	8.577	-8.577	1.0409	23.09	1	21.442	0.000	0	0	0	0	0	0	0	0	0	0	0	;
	142	6.780	80.994	124.511	-124.511	1.0409	335.26	1	311.277	0.000	0	0	0	0	0	0	0	0	0	0	0	;
	142	14.385	0.000	0.000	0.000	1.0409	27.60	1	27.600	0.000	0	0	0	0	0	0	0	0	0	0	0	;
	142	0.000	0.000	13.769	-13.769	1.0409	37.07	0	34.421	0.000	0	0	0	0	0	0	0	0	0	0	0	;
	144	4.347	0.822	2.003	-2.003	1.0401	5.39	1	5.008	0.000	0	0	0	0	0	0	0	0	0	0	0	;
	144	6.740	50.811	123.768	-123.768	1.0401	333.26	1	309.420	0.000	0	0	0	0	0	0	0	0	0	0	0	;
	145	328.500	83.811	151.376	-151.376	1.0339	407.59	1	378.441	0.000	0	0	0	0	0	0	0	0	0	0	0	;
	145	4.681	47.593	85.961	-85.961	1.0339	231.46	1	214.902	0.000	0	0	0	0	0	0	0	0	0	0	0	;
	146	0.000	0.000	29.733	-29.733	1.0248	80.06	0	74.332	0.000	0	0	0	0	0	0	0	0	0	0	0	;
	147	7.490	0.356	3.451	-3.451	1.0270	9.29	1	8.629	0.000	0	0	0	0	0	0	0	0	0	0	0	;
	147	0.000	0.000	17.304	-17.304	1.0270	46.59	0	43.260	0.000	0	0	0	0	0	0	0	0	0	0	0	;
	149	4.427	0.871	2.040	-2.040	1.0322	5.49	1	5.101	0.000	0	0	0	0	0	0	0	0	0	0	0	;
	149	0.000	0.000	27.220	-27.220	1.0322	73.29	0	68.050	0.000	0	0	0	0	0	0	0	0	0	0	0	;
	150	0.000	0.000	4.000	-3.200	1.0237	8.94	0	8.000	4.000	0	0	0	0	0	0	0	0	0	0	0	;
	150	8.800	0.763	4.400	-3.520	1.0237	9.84	1	8.800	4.400	0	0	0	0	0	0	0	0	0	0	0	;
	150	8.800	0.763	4.400	-3.520	1.0237	9.84	1	8.800	4.400	0	0	0	0	0	0	0	0	0	0	0	;
	150	8.800	0.763	4.400	-3.520	1.0237	9.84	1	8.800	4.400	0	0	0	0	0	0	0	0	0	0	0	;
	150	8.800	0.763	4.400	-3.520	1.0237	9.84	1	8.800	4.400	0	0	0	0	0	0	0	0	0	0	0	;
	150	0.000	0.000	4.000	-3.200	1.0237	8.94	0	8.000	4.000	0	0	0	0	0	0	0	0	0	0	0	;
	150	0.000	0.000	12.500	-10.000	1.0237	27.95	0	25.000	12.500	0	0	0	0	0	0	0	0	0	0	0	;
	150	45.934	2.312	21.167	-21.167	1.0237	56.99	1	52.917	0.000	0	0	0	0	0	0	0	0	0	0	0	;
	150	5.753	11.541	105.644	-105.644	1.0237	284.46	1	264.111	0.000	0	0	0	0	0	0	0	0	0	0	0	;
	150	2.919	0.000	0.000	0.000	1.0237	5.60	1	5.600	0.000	0	0	0	0	0	0	0	0	0	0	0	;
	150	0.000	0.000	35.435	-35.435	1.0237	95.41	0	88.587	0.000	0	0	0	0	0	0	0	0	0	0	0	;
	151	25.302	7.569	11.659	-11.659	1.0212	31.39	1	29.148	0.000	0	0	0	0	0	0	0	0	0	0	0	;
	151	5.837	0.000	0.000	0.000	1.0212	11.20	1	11.200	0.000	0	0	0	0	0	0	0	0	0	0	0	;
	151	0.000	0.000	13.722	-13.722	1.0212	36.95	0	34.306	0.000	0	0	0	0	0	0	0	0	0	0	0	;
	152	24.093	2.547	11.102	-11.102	1.0304	29.89	1	27.755	0.000	0	0	0	0	0	0	0	0	0	0	0	;
	152	6.475	27.275	118.903	-118.903	1.0304	320.16	1	297.257	0.000	0	0	0	0	0	0	0	0	0	0	0	;
	152	13.968	0.000	0.000	0.000	1.0304	26.80	1	26.800	0.000	0	0	0	0	0	0	0	0	0	0	0	;
	152	17.200	2.811	12.256	-12.256	1.0304	33.00	1	30.640	0.000	0	0	0	0	0	0	0	0	0	0	0	;
	152	0.000	0.000	13.769	-13.769	1.0304	37.07	0	34.421	0.000	0	0	0	0	0	0	0	0	0	0	0	;
	153	4.600	3.470	84.475	-84.475	1.0290	227.46	1	211.188	0.000	0	0	0	0	0	0	0	0	0	0	0	;
	153	0.000	0.000	13.769	-13.769	1.0290	37.07	0	34.421	0.000	0	0	0	0	0	0	0	0	0	0	0	;
	154	6.845	0.428	3.154	-3.154	1.0284	8.49	1	7.886	0.000	0	0	0	0	0	0	0	0	0	0	0	;
	154	0.000	0.000	15.219	-15.219	1.0284	40.98	0	38.048	0.000	0	0	0	0	0	0	0	0	0	0	0	;
	155	0.000	0.000	20.000	-16.000	1.0442	44.72	0	40.000	20.000	0	0	0	0	0	0	0	0	0	0	0	;
	155	3.783	1.051	1.743	-1.743	1.0442	4.69	1	4.358	0.000	0	0	0	0	0	0	0	0	0	0	0	;
	155	9.733	107.808	178.734	-178.734	1.0442	481.26	1	446.835	0.000	0	0	0	0	0	0	0	0	0	0	0	;
	155	10.528	0.000	0.000	0.000	1.0442	20.20	1	20.200	0.000	0	0	0	0	0	0	0	0	0	0	0	;
	156	9.181	57.742	168.595	-168.595	1.0384	453.96	1	421.488	0.000	0	0	0	0	0	0	0	0	0	0	0	;
	156	5.056	0.000	0.000	0.000	1.0384	9.70	1	9.700	0.000	0	0	0	0	0	0	0	0	0	0	0	;
	157	17.887	4.813	8.242	-8.242	1.0295	22.19	1	20.606	0.000	0	0	0	0	0	0	0	0	0	0	0	;
	158	5.798	1.874	2.672	-2.672	1.0370	7.19	1	6.679	0.000	0	0	0	0	0	0	0	0	0	0	0	;
	158	5.779	74.412	106.127	-106.127	1.0370	285.76	1	265.318	0.000	0	0	0	0	0	0	0	0	0	0	0	;
	158	0.000	0.000	13.722	-13.722	1.0370	36.95	0	34.306	0.000	0	0	0	0	0	0	0	0	0	0	0	;
	159	9.263	2.927	4.269	-4.269	1.0427	11.49	1	10.671	0.000	0	0	0	0	0	0	0	0	0	0	0	;
	159	7.903	99.533	145.123	-145.123	1.0427	390.76	1	362.808	0.000	0	0	0	0	0	0	0	0	0	0	0	;
	159	1.407	0.000	0.000	0.000	1.0427	2.70	1	2.700	0.000	0	0	0	0	0	0	0	0	0	0	0	;
	159	0.000	0.000	9.213	-9.213	1.0427	24.81	0	23.032	0.000	0	0	0	0	0	0	0	0	0	0	0	;
	160	24.737	7.044	11.399	-11.399	1.0469	30.69	1	28.498	0.000	0	0	0	0	0	0	0	0	0	0	0	;
	160	8.412	95.464	154.482	-154.482	1.0469	415.96	1	386.205	0.000	0	0	0	0	0	0	0	0	0	0	0	;
	160	28.822	0.000	0.000	0.000	1.0469	55.30	1	55.300	0.000	0	0	0	0	0	0	0	0	0	0	0	;
	161	9.035	43.151	165.921	-165.921	1.0361	446.76	1	414.803	0.000	0	0	0	0	0	0	0	0	0	0	0	;
	162	50.850	8.416	23.432	-23.432	1.0289	63.09	1	58.581	0.000	0	0	0	0	0	0	0	0	0	0	0	;
	162	5.369	35.409	98.588	-98.588	1.0289	265.46	1	246.470	0.000	0	0	0	0	0	0	0	0	0	0	0	;
	162	1.668	0.000	0.000	0.000	1.0289	3.20	1	3.200	0.000	0	0	0	0	0	0	0	0	0	0	0	;
	163	8.877	27.077	163.024	-163.024	1.0318	438.96	1	407.560	0.000	0	0	0	0	0	0	0	0	0	0	0	;
	163	3.753	0.000	0.000	0.000	1.0318	7.20	1	7.200	0.000	0	0	0	0	0	0	0	0	0	0	0	;
	164	7.036	0.000	0.000	0.000	1.0297	13.50	1	13.500	0.000	0	0	0	0	0	0	0	0	0	0	0	;
	164	0.000	0.000	96.317	-96.317	1.0297	259.34	0	240.792	0.000	0	0	0	0	0	0	0	0	0	0	0	;
	165	6.022	12.704	110.584	-110.584	1.0084	297.76	1	276.460	0.000	0	0	0	0	0	0	0	0	0	0	0	;
	165	10.997	0.000	0.000	0.000	1.0084	21.10	1	21.100	0.000	0	0	0	0	0	0	0	0	0	0	0	;
	166	18.935	4.516	8.725	-8.725	1.0468	23.49	1	21.813	0.000	0	0	0	0	0	0	0	0	0	0	0	;
	166	9.251	87.928	169.895	-169.895	1.0468	457.46	1	424.737	0.000	0	0	0	0	0	0	0	0	0	0	0	;
	166	0.000	0.000	13.859	-13.859	1.0468	37.32	0	34.648	0.000	0	0	0	0	0	0	0	0	0	0	0	;
	167	4.266	-0.072	1.966	-1.966	1.0108	5.29	1	4.915	0.000	0	0	0	0	0	0	0	0	0	0	0	;
	167	6.867	-4.601	126.108	-126.108	1.0108	339.56	1	315.270	0.000	0	0	0	0	0	0	0	0	0	0	0	;
	167	19.441	0.000	0.000	0.000	1.0108	37.30	1	37.300	0.000	0	0	0	0	0	0	0	0	0	0	0	;
	168	7.248	0.885	3.340	-3.340	1.0400	8.99	1	8.350	0.000	0	0	0	0	0	0	0	0	0	0	0	;
	168	0.000	0.000	13.722	-13.722	1.0400	36.95	0	34.306	0.000	0	0	0	0	0	0	0	0	0	0	0	;
	169	7.599	93.059	139.552	-139.552	1.0465	375.76	1	348.881	0.000	0	0	0	0	0	0	0	0	0	0	0	;
	169	0.000	0.000	13.819	-13.819	1.0465	37.21	0	34.548	0.000	0	0	0	0	0	0	0	0	0	0	0	;
	170	6.398	62.886	117.492	-117.492	1.0388	316.36	1	293.729	0.000	0	0	0	0	0	0	0	0	0	0	0	;
	170	2.085	0.000	0.000	0.000	1.0388	4.00	1	4.000	0.000	0	0	0	0	0	0	0	0	0	0	0	;
	171	0.553	0.000	0.000	0.000	1.0255	1.06	1	1.060	0.000	0	0	0	0	0	0	0	0	0	0	0	;
	171	0.000	0.000	24.556	-24.556	1.0255	66.12	0	61.391	0.000	0	0	0	0	0	0	0	0	0	0	0	;
	172	5.597	5.204	102.785	-102.785	1.0098	276.76	1	256.962	0.000	0	0	0	0	0	0	0	0	0	0	0	;
...
];

%% gen tags 
% Generation Technology Type:
%  CWS (Connection with Spain),
%  FOG (Fossil Gas),
%  FHC (Fossil Hard Coal),
%  HWR (Hydro Water Reservoir),
%  HPS (Hydro Pumped Storage),
%  HRP (Hydro Run-of-river and poundage),
%  SH1 (Small Hydro - P ≤ 10 MW),
%  SH3 (Small Hydro - 10 MW < P ≤ 30 MW),
%  PVP (Photovoltaic power plant),
%  WON (Wind onshore),
%  WOF (Wind offshore),
%  MAR (Marine),
%  OTH (Other thermal, such as geothermal, biomass, biogas, Municipal solid waste and CHP renewable and non-renewable)
%	genType
mpc.gen_tags = {
	'CWS';	'CWS';	'CWS';	'CWS';	'CWS';	'CWS';	'CWS';	'CWS';	'PVP';	'PVP';	'PVP';	'PVP';	'PVP';	'PVP';	'HWR';	'HWR';	'PVP';	'HRP';	'HRP';	'HRP';	'PVP';	'WON';	'WON';	'PVP';	'PVP';	'WON';	'SH3';	'HRP';	'HRP';	'OTH';	'WON';	'SH1';	'PVP';	'OTH';	'PVP';	'OTH';	'OTH';	'PVP';	'OTH';	'SH1';	'PVP';	'OTH';	'WON';	'SH1';	'SH3';	'PVP';	'HPS';	'HPS';	'OTH';	'WON';	'SH1';	'OTH';	'SH1';	'PVP';	'OTH';	'PVP';	'OTH';	'WON';	'SH1';	'SH3';	'OTH';	'WON';	'PVP';	'OTH';	'WON';	'SH1';	'PVP';	'WON';	'SH1';	'PVP';	'OTH';	'WON';	'PVP';	'OTH';	'PVP';	'OTH';	'WON';	'SH1';	'WON';	'OTH';	'WON';	'PVP';	'OTH';	'WON';	'SH1';	'SH3';	'PVP';	'OTH';	'WON';	'SH1';	'PVP';	'HWR';	'OTH';	'WON';	'SH1';	'OTH';	'OTH';	'WON';	'PVP';	'OTH';	'WON';	'PVP';	'OTH';	'WON';	'SH1';	'OTH';	'PVP';	'WON';	'OTH';	'PVP';	'OTH';	'WON';	'SH1';	'OTH';	'SH1';	'PVP';	'OTH';	'PVP';	'SH1';	'PVP';	'OTH';	'PVP';	'OTH';	'WON';	'SH1';	'PVP';	'OTH';	'WON';	'OTH';	'WON';	'PVP';	'OTH';	'PVP';	'OTH';	'PVP';	'HWR';	'HRP';	'HRP';	'HRP';	'HRP';	'HWR';	'HWR';	'OTH';	'WON';	'SH1';	'PVP';	'OTH';	'SH1';	'PVP';	'OTH';	'WON';	'SH1';	'SH3';	'PVP';	'WON';	'PVP';	'OTH';	'PVP';	'HWR';	'OTH';	'WON';	'SH1';	'WON';	'SH1';	'OTH';	'OTH';	'WON';	'PVP';	'OTH';	'WON';	'SH1';	'PVP';	'OTH';	'WON';	'SH1';	'WON';	'OTH';	'WON';	'SH1';	'WON';	'SH1';	'SH1';	'PVP';	'WON';	'SH1';	'OTH';	'WON';	'PVP';	'OTH';	'WON';	'SH1';	'OTH';	'PVP';	'WON';	'PVP';	'WON';	'SH1';	'SH1';	'PVP';	'WON';	'SH1';	'HWR';	'HWR';	'HWR';	'HWR';	'HWR';	'HWR';	'HWR';	'HWR';	'HWR';	'HWR';	'HPS';	'HPS';	'HWR';	'HWR';	'HWR';	'HPS';	'HRP';	'HRP';	'HRP';	'HPS';	'HPS';	'HWR';	'HWR';	'HWR';	'HRP';	'HRP';	'HRP';	'HRP';	'HRP';	'HRP';	'HRP';	'HRP';	'HRP';	'HRP';	'HPS';	'HPS';	'HPS';	'HRP';	'HRP';	'HRP';	'HPS';	'HPS';	'HRP';	'HRP';	'HRP';	'HRP';	'HRP';	'HRP';	'HRP';	'HRP';	'HRP';	'FOG';	'HRP';	'HPS';	'HPS';	'HPS';	'HPS';	'HPS';	'HPS';	'HPS';	'HPS';	'HPS';	'HWR';	'HWR';	'FOG';	'FOG';	'FOG';	'FOG';	'FOG';	'FOG';	'OTH';	'WON';	'WON';	'WON';	'WON';	'OTH';	'WON';	'WON';	'WON';	'WON';	'WON';	'WON';	'WON';	'HRP';	'HRP';	'HRP';	'WOF';	'MAR';	'PVP';	'HPS';	'HPS';	'PVP';	'PVP';	'PVP';	'PVP';	'HWR';	'HWR';	'HPS';	'HPS';	'HPS';	'HPS';	'HWR';	'HWR';	'WON';	'PVP';	'PVP';
};

%% branch data
% If the 'step_size', 'actTap', 'minTap', 'maxTap' and 'normalTap' fields are equal to "-1", it means that the transformer does not have tap changing capability
% If the length is equal to "0", it means that the correspondent branch represents a transformer
%	fbus	tbus	r	x	b	rateA (summer)	rateB (spring)	rateC (winter)	tap ratio	shift angle		status	angmin	angmax	step_size	actTap	minTap	maxTap	normalTap	length (km)
mpc.branch = [
	8	24	0.02945	0.09879	0.03302	91	123	130	0	0	0	-360	360	0	0	0	0	0	54.0	;
	8	176	0.02007	0.06867	0.02205	96	104	104	0	0	1	-360	360	0	0	0	0	0	36.6	;
	8	176	0.02014	0.06872	0.02229	96	104	104	0	0	1	-360	360	0	0	0	0	0	36.7	;
	9	14	0.00146	0.00787	0.00265	255	260	260	0	0	1	-360	360	0	0	0	0	0	4.3	;
	9	14	0.00146	0.00769	0.00260	255	260	260	0	0	1	-360	360	0	0	0	0	0	4.2	;
	9	14	0.00137	0.00737	0.00250	124	162	203	0	0	1	-360	360	0	0	0	0	0	4.1	;
	10	19	0.02098	0.11168	0.03801	218	248	260	0	0	1	-360	360	0	0	0	0	0	61.3	;
	10	22	0.02445	0.08166	0.02747	164	186	206	0	0	1	-360	360	0	0	0	0	0	44.5	;
	10	26	0.00777	0.04761	0.01640	260	260	260	0	0	1	-360	360	0	0	0	0	0	26.0	;
	11	14	0.02030	0.07019	0.02214	171	186	206	0	0	1	-360	360	0	0	0	0	0	36.7	;
	11	14	0.02010	0.06862	0.02204	191	204	222	0	0	1	-360	360	0	0	0	0	0	36.5	;
	12	22	0.02823	0.10553	0.04049	189	204	222	0	0	1	-360	360	0	0	0	0	0	61.6	;
	12	23	0.01953	0.08771	0.03214	195	204	222	0	0	1	-360	360	0	0	0	0	0	49.8	;
	12	29	0.01515	0.04945	0.01745	195	204	222	0	0	1	-360	360	0	0	0	0	0	27.9	;
	12	29	0.01515	0.04945	0.01745	195	204	222	0	0	1	-360	360	0	0	0	0	0	27.9	;
	12	29	0.00551	0.05765	0.03609	260	260	260	0	0	1	-360	360	0	0	0	0	0	42.8	;
	12	34	0.02334	0.12013	0.04435	255	260	260	0	0	1	-360	360	0	0	0	0	0	68.7	;
	13	14	0.00788	0.04049	0.01506	255	260	260	0	0	1	-360	360	0	0	0	0	0	23.1	;
	13	14	0.00788	0.04049	0.01506	255	260	260	0	0	1	-360	360	0	0	0	0	0	23.1	;
	13	20	0.00745	0.02441	0.00855	195	204	221	0	0	1	-360	360	0	0	0	0	0	13.6	;
	13	20	0.00745	0.02441	0.00855	195	204	221	0	0	1	-360	360	0	0	0	0	0	13.6	;
	13	20	0.00745	0.02441	0.00855	195	204	221	0	0	1	-360	360	0	0	0	0	0	13.6	;
	13	20	0.00745	0.02441	0.00855	195	204	221	0	0	1	-360	360	0	0	0	0	0	13.6	;
	13	180	0.00411	0.02110	0.00788	255	260	260	0	0	1	-360	360	0	0	0	0	0	12.0	;
	13	246	0.00422	0.02163	0.00811	260	260	260	0	0	1	-360	360	0	0	0	0	0	12.2	;
	14	180	0.00411	0.02110	0.00788	255	260	260	0	0	1	-360	360	0	0	0	0	0	12.0	;
	14	185	0.01114	0.03788	0.01266	191	204	222	0	0	1	-360	360	0	0	0	0	0	20.5	;
	14	186	0.02662	0.09054	0.02905	185	204	222	0	0	1	-360	360	0	0	0	0	0	48.4	;
	14	246	0.00408	0.02092	0.00779	255	260	260	0	0	1	-360	360	0	0	0	0	0	12.0	;
	15	22	0.02154	0.10932	0.04126	224	248	260	0	0	1	-360	360	0	0	0	0	0	63.4	;
	15	22	0.02154	0.10932	0.04126	224	248	260	0	0	1	-360	360	0	0	0	0	0	63.4	;
	15	26	0.00974	0.05968	0.02055	260	260	260	0	0	1	-360	360	0	0	0	0	0	32.6	;
	15	27	0.02701	0.09576	0.03037	191	204	222	0	0	1	-360	360	0	0	0	0	0	50.5	;
	15	28	0.03335	0.10915	0.03827	195	204	222	0	0	1	-360	360	0	0	0	0	0	60.7	;
	15	29	0.05251	0.17172	0.06032	195	204	222	0	0	1	-360	360	0	0	0	0	0	95.6	;
	15	250	0.00184	0.00954	0.00342	130	130	130	0	0	1	-360	360	0	0	0	0	0	5.4	;
	15	250	0.00187	0.00974	0.00349	130	130	130	0	0	1	-360	360	0	0	0	0	0	5.5	;
	15	255	0.00282	0.01157	0.02727	260	273	296	0	0	1	-360	360	0	0	0	0	0	5.9	;
	16	178	0.00839	0.03586	0.01167	104	123	130	0	0	1	-360	360	0	0	0	0	0	19.0	;
	17	21	0.01658	0.06789	0.02323	195	204	222	0	0	1	-360	360	0	0	0	0	0	37.9	;
	17	21	0.00900	0.05720	0.02480	260	273	296	0	0	1	-360	360	0	0	0	0	0	35.0	;
	17	25	0.01638	0.06453	0.02191	104	123	153	0	0	1	-360	360	0	0	0	0	0	35.2	;
	17	184	0.01106	0.03018	0.01032	91	108	134	0	0	1	-360	360	0	0	0	0	0	16.6	;
	18	287	0.00156	0.01068	0.00498	260	273	296	0	0	0	-360	360	0	0	0	0	0	6.8	;
	18	288	0.00151	0.01038	0.00484	260	273	296	0	0	1	-360	360	0	0	0	0	0	6.6	;
	18	306	0.00548	0.02813	0.01051	255	260	260	0	0	1	-360	360	0	0	0	0	0	16.0	;
	18	307	0.00480	0.02461	0.00920	255	260	260	0	0	1	-360	360	0	0	0	0	0	14.0	;
	19	186	0.02662	0.09054	0.02905	185	204	222	0	0	1	-360	360	0	0	0	0	0	48.4	;
	21	30	0.01441	0.06067	0.02080	195	204	222	0	0	1	-360	360	0	0	0	0	0	33.3	;
	21	32	0.00720	0.04579	0.01985	260	273	296	0	0	1	-360	360	0	0	0	0	0	28.0	;
	21	32	0.00720	0.04579	0.01985	260	273	296	0	0	1	-360	360	0	0	0	0	0	28.0	;
	21	251	0.00610	0.04180	0.01950	260	273	296	0	0	1	-360	360	0	0	0	0	0	26.5	;
	22	34	0.01325	0.06238	0.06238	337	372	411	0	0	1	-360	360	0	0	0	0	0	57.9	;
	22	245	0.01212	0.04116	0.01324	81	123	130	0	0	1	-360	360	0	0	0	0	0	22.0	;
	23	34	0.01185	0.06135	0.02247	255	260	260	0	0	1	-360	360	0	0	0	0	0	35.1	;
	23	34	0.01185	0.06135	0.02247	255	260	260	0	0	1	-360	360	0	0	0	0	0	35.1	;
	23	34	0.01580	0.07475	0.02730	255	260	260	0	0	1	-360	360	0	0	0	0	0	42.7	;
	24	31	0.00310	0.03271	0.07540	520	520	520	0	0	1	-360	360	0	0	0	0	0	46.5	;
	24	181	0.00436	0.01464	0.00484	189	195	195	0	0	1	-360	360	0	0	0	0	0	7.8	;
	24	248	0.00715	0.03705	0.01350	227	248	381	0	0	1	-360	360	0	0	0	0	0	20.8	;
	24	248	0.00715	0.03705	0.01350	227	248	381	0	0	1	-360	360	0	0	0	0	0	20.8	;
	24	252	0.01240	0.06509	0.02314	253	260	260	0	0	1	-360	360	0	0	0	0	0	36.3	;
	25	32	0.01065	0.03476	0.01219	195	204	222	0	0	1	-360	360	0	0	0	0	0	19.3	;
	25	32	0.01069	0.03488	0.01223	195	204	222	0	0	1	-360	360	0	0	0	0	0	19.3	;
	25	32	0.00504	0.02690	0.01516	233	248	260	0	0	1	-360	360	0	0	0	0	0	18.0	;
	25	307	0.00582	0.01853	0.00675	104	123	153	0	0	1	-360	360	0	0	0	0	0	10.6	;
	25	307	0.00581	0.01846	0.00677	104	123	153	0	0	1	-360	360	0	0	0	0	0	10.6	;
	27	185	0.01114	0.03788	0.01266	191	204	222	0	0	1	-360	360	0	0	0	0	0	20.5	;
	28	29	0.01921	0.06275	0.02210	195	204	222	0	0	1	-360	360	0	0	0	0	0	35.2	;
	30	32	0.00729	0.02383	0.00834	195	204	222	0	0	1	-360	360	0	0	0	0	0	13.2	;
	30	32	0.00729	0.02383	0.00834	195	204	222	0	0	1	-360	360	0	0	0	0	0	13.2	;
	30	32	0.00732	0.02829	0.00946	195	204	222	0	0	1	-360	360	0	0	0	0	0	15.4	;
	30	33	0.00260	0.02724	0.01640	520	520	520	0	0	1	-360	360	0	0	0	0	0	19.8	;
	30	174	0.00358	0.02407	0.00900	260	260	260	0	0	1	-360	360	0	0	0	0	0	13.8	;
	30	179	0.00403	0.01370	0.00440	104	123	153	0	0	1	-360	360	0	0	0	0	0	7.3	;
	30	184	0.01106	0.03018	0.01032	91	108	134	0	0	1	-360	360	0	0	0	0	0	16.6	;
	31	248	0.00715	0.03705	0.01350	227	248	381	0	0	1	-360	360	0	0	0	0	0	20.8	;
	31	248	0.00715	0.03705	0.01350	227	248	381	0	0	1	-360	360	0	0	0	0	0	20.8	;
	31	253	0.01091	0.05722	0.02036	253	260	260	0	0	1	-360	360	0	0	0	0	0	31.9	;
	32	33	0.00695	0.04818	0.02461	504	520	520	0	0	1	-360	360	0	0	0	0	0	32.2	;
	32	254	0.01869	0.10188	0.03320	260	273	296	0	0	1	-360	360	0	0	0	0	0	53.5	;
	32	254	0.01869	0.10188	0.03320	260	273	296	0	0	1	-360	360	0	0	0	0	0	53.5	;
	32	306	0.01351	0.04810	0.01561	195	204	222	0	0	1	-360	360	0	0	0	0	0	25.7	;
	33	173	0.00082	0.00526	0.00200	306	321	348	0	0	1	-360	360	0	0	0	0	0	3.0	;
	33	177	0.00830	0.02880	0.00938	104	104	104	0	0	1	-360	360	0	0	0	0	0	15.3	;
	33	182	0.00023	0.00161	0.00056	306	321	348	0	0	1	-360	360	0	0	0	0	0	0.9	;
	33	184	0.00504	0.03382	0.01267	274	291	322	0	0	1	-360	360	0	0	0	0	0	19.3	;
	36	64	0.00418	0.02292	0.13770	999	1092	1206	0	0	1	-360	360	0	0	0	0	0	52.3	;
	36	71	0.00396	0.02133	0.13035	999	1092	1206	0	0	1	-360	360	0	0	0	0	0	48.9	;
	36	187	0.00011	0.00060	0.00094	191	191	191	0	0	1	-360	360	0	0	0	0	0	0.7	;
	36	188	0.00018	0.00061	0.00092	191	191	191	0	0	1	-360	360	0	0	0	0	0	0.7	;
	36	189	0.00018	0.00061	0.00092	191	191	191	0	0	1	-360	360	0	0	0	0	0	0.8	;
	37	59	0.00168	0.00382	0.35975	493	493	493	0	0	1	-360	360	0	0	0	0	0	10.4	;
	37	213	0.00017	0.00044	0.04927	322	322	322	0	0	1	-360	360	0	0	0	0	0	1.8	;
	37	214	0.00017	0.00044	0.04927	322	322	322	0	0	1	-360	360	0	0	0	0	0	1.8	;
	37	215	0.00017	0.00044	0.04927	322	322	322	0	0	1	-360	360	0	0	0	0	0	1.8	;
	37	216	0.00017	0.00044	0.04927	322	322	322	0	0	1	-360	360	0	0	0	0	0	1.8	;
	38	208	0.00048	0.00109	0.10268	493	493	493	0	0	1	-360	360	0	0	0	0	0	3.2	;
	38	209	0.00048	0.00108	0.10056	493	493	493	0	0	1	-360	360	0	0	0	0	0	3.2	;
	39	45	0.01696	0.09185	0.14133	381	381	381	0	0	1	-360	360	0	0	0	0	0	106.8	;
	39	69	0.00691	0.03721	0.05799	513	546	571.5	0	0	1	-360	360	0	0	0	0	0	43.0	;
	39	69	0.00687	0.03725	0.05671	381	381	381	0	0	1	-360	360	0	0	0	0	0	43.0	;
	39	71	0.00183	0.01006	0.05957	1026	1090.5	1143	0	0	1	-360	360	0	0	0	0	0	22.2	;
	39	78	0.00658	0.03647	0.05332	382	400	435	0	0	1	-360	360	0	0	0	0	0	41.1	;
	39	195	0.00484	0.02634	0.04046	199	237	297	0	0	1	-360	360	0	0	0	0	0	30.4	;
	39	199	0.00873	0.04861	0.07070	381	381	381	0	0	1	-360	360	0	0	0	0	0	54.7	;
	39	258	0.00326	0.01810	0.02629	382	400	435	0	0	1	-360	360	0	0	0	0	0	20.3	;
	39	258	0.00240	0.01307	0.02007	199	237	297	0	0	1	-360	360	0	0	0	0	0	15.1	;
	40	51	0.00874	0.04843	0.07272	374	400	435	0	0	1	-360	360	0	0	0	0	0	54.7	;
	40	65	0.00985	0.05518	0.07982	499.5	546	571.5	0	0	1	-360	360	0	0	0	0	0	61.9	;
	40	65	0.00944	0.05439	0.07975	499.5	546	571.5	0	0	1	-360	360	0	0	0	0	0	61.8	;
	40	196	0.00017	0.00091	0.00135	182	237	297	0	0	1	-360	360	0	0	0	0	0	1.0	;
	40	198	0.00214	0.01565	0.02877	439	471	511	0	0	1	-360	360	0	0	0	0	0	19.6	;
	40	5	0.00630	0.03584	0.05497	374	400	435	0	0	1	-360	360	0	0	0	0	0	41.1	;
	40	5	0.00636	0.03628	0.05564	374	400	435	0	0	1	-360	360	0	0	0	0	0	41.4	;
	40	6	0.00481	0.02670	0.03939	360	390	430	0	0	1	-360	360	0	0	0	0	0	30.2	;
	41	53	0.00145	0.00845	0.01465	381	381	381	0	0	1	-360	360	0	0	0	0	0	10.4	;
	41	53	0.00078	0.00546	0.00902	381	381	381	0	0	1	-360	360	0	0	0	0	0	6.5	;
	41	57	0.00318	0.01660	0.02798	381	381	381	0	0	1	-360	360	0	0	0	0	0	20.2	;
	41	68	0.00084	0.00572	0.00995	401	426	472	0	0	1	-360	360	0	0	0	0	0	7.0	;
	41	68	0.00170	0.00386	0.36133	493	493	493	0	0	1	-360	360	0	0	0	0	0	10.7	;
	41	210	0.00056	0.00586	0.01715	762	762	762	0	0	1	-360	360	0	0	0	0	0	9.4	;
	41	211	0.00221	0.02313	0.06702	762	762	762	0	0	1	-360	360	0	0	0	0	0	37.0	;
	41	308	0.00006	0.00025	0.01708	240	240	240	0	0	1	-360	360	0	0	0	0	0	0.7	;
	42	78	0.00448	0.02493	0.03617	382	400	435	0	0	1	-360	360	0	0	0	0	0	28.0	;
	42	78	0.00448	0.02494	0.03619	382	400	435	0	0	1	-360	360	0	0	0	0	0	28.0	;
	42	257	0.00276	0.01543	0.02230	381	381	381	0	0	1	-360	360	0	0	0	0	0	17.3	;
	42	257	0.00274	0.01524	0.02237	381	381	381	0	0	1	-360	360	0	0	0	0	0	17.3	;
	43	58	0.00210	0.00476	0.44633	493	493	493	0	0	1	-360	360	0	0	0	0	0	12.6	;
	43	76	0.00113	0.00321	0.34652	446	446	446	0	0	1	-360	360	0	0	0	0	0	11.1	;
	43	76	0.00113	0.00320	0.34511	446	446	446	0	0	1	-360	360	0	0	0	0	0	11.1	;
	43	204	0.00146	0.00771	0.01235	381	381	381	0	0	1	-360	360	0	0	0	0	0	9.2	;
	43	205	0.00063	0.00332	0.00533	381	381	381	0	0	1	-360	360	0	0	0	0	0	3.9	;
	43	219	0.00083	0.00445	0.00676	342	364	381	0	0	1	-360	360	0	0	0	0	0	5.4	;
	44	48	0.00396	0.02139	0.03311	342	364	381	0	0	1	-360	360	0	0	0	0	0	24.9	;
	44	66	0.00779	0.04029	0.06834	381	381	381	0	0	1	-360	360	0	0	0	0	0	50.9	;
	44	66	0.00311	0.03080	0.09461	897	941	1021	0	0	1	-360	360	0	0	0	0	0	50.7	;
	44	193	0.00504	0.02686	0.04234	381	381	381	0	0	1	-360	360	0	0	0	0	0	31.7	;
	45	46	0.00650	0.03510	0.05270	382	400	435	0	0	1	-360	360	0	0	0	0	0	40.2	;
	45	46	0.00608	0.03139	0.05420	382	400	435	0	0	1	-360	360	0	0	0	0	0	38.8	;
	45	46	0.00614	0.03155	0.05417	382	400	435	0	0	1	-360	360	0	0	0	0	0	38.8	;
	45	74	0.00586	0.03263	0.04775	381	381	381	0	0	1	-360	360	0	0	0	0	0	36.7	;
	45	74	0.00586	0.03263	0.04775	381	381	381	0	0	1	-360	360	0	0	0	0	0	36.7	;
	45	199	0.00873	0.04861	0.07070	381	381	381	0	0	1	-360	360	0	0	0	0	0	54.7	;
	46	50	0.00409	0.02221	0.03328	381	400	435	0	0	1	-360	360	0	0	0	0	0	25.4	;
	46	64	0.00275	0.01510	0.09065	666	728	804	0	0	1	-360	360	0	0	0	0	0	34.8	;
	46	214	0.00477	0.02559	0.04001	381	381	381	0	0	1	-360	360	0	0	0	0	0	30.0	;
	46	216	0.00465	0.02524	0.03797	382	400	435	0	0	1	-360	360	0	0	0	0	0	28.9	;
	46	222	0.00006	0.00021	0.02068	438	438	438	0	0	1	-360	360	0	0	0	0	0	0.8	;
	46	260	0.00913	0.04888	0.07531	342	364	381	0	0	1	-360	360	0	0	0	0	0	56.8	;
	47	57	0.01028	0.05388	0.08954	381	381	381	0	0	1	-360	360	0	0	0	0	0	65.0	;
	47	61	0.00034	0.00182	0.00285	199	237	297	0	0	1	-360	360	0	0	0	0	0	2.1	;
	47	66	0.00525	0.02886	0.04430	381	381	381	0	0	1	-360	360	0	0	0	0	0	33.4	;
	47	67	0.00789	0.04153	0.06856	381	381	381	0	0	1	-360	360	0	0	0	0	0	50.0	;
	47	75	0.00724	0.03931	0.05957	382	400	435	0	0	1	-360	360	0	0	0	0	0	45.0	;
	47	211	0.00221	0.02313	0.06702	762	762	762	0	0	1	-360	360	0	0	0	0	0	37.0	;
	47	224	0.00039	0.00426	0.01070	750	762	762	0	0	1	-360	360	0	0	0	0	0	6.4	;
	48	66	0.01101	0.05739	0.09535	381	381	381	0	0	1	-360	360	0	0	0	0	0	69.5	;
	48	69	0.00352	0.01887	0.02971	513	546	571.5	0	0	1	-360	360	0	0	0	0	0	22.6	;
	48	69	0.00350	0.01889	0.02900	381	381	381	0	0	1	-360	360	0	0	0	0	0	22.0	;
	49	57	0.00169	0.00872	0.05960	381	381	381	0	0	1	-360	360	0	0	0	0	0	21.4	;
	49	193	0.00037	0.00490	0.01932	1200	1200	1200	0	0	1	-360	360	0	0	0	0	0	9.2	;
	49	221	0.00055	0.00728	0.02882	762	762	762	0	0	1	-360	360	0	0	0	0	0	13.7	;
	50	55	0.00311	0.01663	0.02615	381	381	381	0	0	1	-360	360	0	0	0	0	0	19.5	;
	50	55	0.00252	0.01377	0.02062	381	381	381	0	0	1	-360	360	0	0	0	0	0	15.8	;
	50	56	0.00162	0.01419	0.06090	762	762	762	0	0	1	-360	360	0	0	0	0	0	27.0	;
	50	204	0.00146	0.00771	0.01235	381	381	381	0	0	1	-360	360	0	0	0	0	0	9.2	;
	50	213	0.00210	0.01087	0.01848	381	381	381	0	0	1	-360	360	0	0	0	0	0	13.3	;
	50	215	0.00316	0.01718	0.02582	382	400	435	0	0	1	-360	360	0	0	0	0	0	19.7	;
	50	217	0.00182	0.00952	0.01558	382	400	435	0	0	1	-360	360	0	0	0	0	0	11.3	;
	51	66	0.00711	0.03753	0.06399	382	400	435	0	0	1	-360	360	0	0	0	0	0	45.9	;
	51	66	0.00712	0.03759	0.06408	382	400	435	0	0	1	-360	360	0	0	0	0	0	46.0	;
	51	194	0.00465	0.02422	0.04046	382	400	435	0	0	1	-360	360	0	0	0	0	0	29.4	;
	51	194	0.00466	0.02427	0.04055	382	400	435	0	0	1	-360	360	0	0	0	0	0	29.5	;
	51	224	0.00039	0.00426	0.01070	750	762	762	0	0	0	-360	360	0	0	0	0	0	6.4	;
	52	199	0.00057	0.00311	0.00469	191	191	191	0	0	1	-360	360	0	0	0	0	0	3.6	;
	53	68	0.00078	0.00545	0.00900	401	426	472	0	0	1	-360	360	0	0	0	0	0	6.6	;
	53	190	0.00222	0.01196	0.02035	381	381	381	0	0	1	-360	360	0	0	0	0	0	14.7	;
	54	63	0.00412	0.02158	0.03520	374	381	381	0	0	1	-360	360	0	0	0	0	0	25.7	;
	54	77	0.00631	0.03514	0.05182	374	400	435	0	0	1	-360	360	0	0	0	0	0	39.5	;
	54	77	0.00636	0.03898	0.06249	374	400	435	0	0	1	-360	360	0	0	0	0	0	46.1	;
	54	191	0.00237	0.01312	0.01925	182	229	229	0	0	1	-360	360	0	0	0	0	0	14.9	;
	54	191	0.00189	0.01296	0.02104	229	229	229	0	0	1	-360	360	0	0	0	0	0	15.5	;
	54	192	0.00309	0.01722	0.02516	374	400	435	0	0	1	-360	360	0	0	0	0	0	19.4	;
	54	200	0.00006	0.00035	0.00053	182	237	297	0	0	1	-360	360	0	0	0	0	0	0.4	;
	54	201	0.00006	0.00035	0.00053	182	237	297	0	0	1	-360	360	0	0	0	0	0	0.4	;
	54	202	0.00006	0.00035	0.00053	182	237	297	0	0	1	-360	360	0	0	0	0	0	0.4	;
	54	203	0.00005	0.00034	0.00053	182	237	297	0	0	1	-360	360	0	0	0	0	0	0.2	;
	55	58	0.00049	0.00177	0.22418	364	364	364	0	0	1	-360	360	0	0	0	0	0	7.8	;
	55	204	0.00041	0.00224	0.00340	381	381	381	0	0	1	-360	360	0	0	0	0	0	2.6	;
	55	205	0.00063	0.00332	0.00533	381	381	381	0	0	1	-360	360	0	0	0	0	0	3.9	;
	56	74	0.00719	0.04008	0.05857	382	400	435	0	0	1	-360	360	0	0	0	0	0	46.0	;
	56	205	0.00144	0.00779	0.01170	382	400	435	0	0	1	-360	360	0	0	0	0	0	8.9	;
	57	60	0.00351	0.01764	0.02842	381	381	381	0	0	1	-360	360	0	0	0	0	0	20.8	;
	57	67	0.00249	0.01299	0.02177	381	381	381	0	0	1	-360	360	0	0	0	0	0	15.7	;
	57	190	0.00222	0.01196	0.02035	381	381	381	0	0	1	-360	360	0	0	0	0	0	14.7	;
	57	210	0.00056	0.00586	0.01715	762	762	762	0	0	1	-360	360	0	0	0	0	0	9.4	;
	57	220	0.00042	0.00563	0.02152	1200	1200	1200	0	0	1	-360	360	0	0	0	0	0	10.4	;
	57	221	0.00055	0.00728	0.02882	762	762	762	0	0	1	-360	360	0	0	0	0	0	13.7	;
	58	219	0.00038	0.00138	0.17477	364	364	364	0	0	1	-360	360	0	0	0	0	0	6.2	;
...
];
